/*--------------------------------*- C++ -*----------------------------------*\
  =========                 |
  \\      /  F ield         | OpenFOAM: The Open Source CFD Toolbox
   \\    /   O peration     | Website:  https://openfoam.org
    \\  /    A nd           | Version:  10
     \\/     M anipulation  |
\*---------------------------------------------------------------------------*/
FoamFile
{
    format      ascii;
    class       volScalarField;
    object      alphat;
}
// * * * * * * * * * * * * * * * * * * * * * * * * * * * * * * * * * * * * * //

dimensions      [1 -1 -1 0 0 0 0];

internalField   uniform 0;

boundaryField
{
    frontBack
    {
        type            empty;
    }
	
	INLET
    {
        type            calculated;
        value           uniform 0;
    }
	
	OUTLET
    {
        type            calculated;
        value           uniform 0;
    }

    PRISM
    {
        type            compressible::alphatWallFunction;
        value           uniform 0;
    }

    WALL
    {
        type            compressible::alphatWallFunction;
        value           uniform 0;
    }
}

// ************************************************************************* //
